/*--------------------------------*- C++ -*----------------------------------*\
| =========                 |                                                 |
| \\      /  F ield         | OpenFOAM: The Open Source CFD Toolbox           |
|  \\    /   O peration     | Version:  3.10                                 |
|   \\  /    A nd           | Web:      www.OpenFOAM.org                      |
|    \\/     M anipulation  |                                                 |
\*---------------------------------------------------------------------------*/
FoamFile
{
    version     2.0;
    format      ascii;
    class       dictionary;
    object      blockMeshDict;
}
// * * * * * * * * * * * * * * * * * * * * * * * * * * * * * * * * * * * * * //

convertToMeters 1e-3;

vertices
(


    (-0.150 0 0)//0
    (0.150 0 0)//1
    (0.150 0.40 0)//2
    (-0.150 0.40 0)//3
    (-0.150 0 0.90)//4
    (0.150 0 0.90)//5
    (0.150 0.40 0.90)//6
    (-0.150 0.40 0.90)//7
	
    (-0.150 0 -1.0)//8
    (0.150 0 -1.0)//9
    (0.150 0.40 -1.0)//10
    (-0.150 0.40 -1.0)//11
    (-0.150 0 1.90)//12
    (0.150 0 1.90)//13
    (0.150 0.40 1.90)//14
    (-0.150 0.40 1.90)//15
    (-1.150 0 0)//16
    (-1.150 0 0.90)//17
    (-1.150 0.40 0.90)//18
    (-1.150 0.40 0)//19
    (1.150 0 0)//20
    (1.150 0 0.90)//21
    (1.150 0.40 0.90)//22
    (1.150 0.40 0)//23
    (-1.150 0 -1.0)//24
    (-1.150 0.40 -1.0)//25
    (1.150 0 -1.0)//26
    (1.150 0.40 -1.0)//27
    (-1.150 0 1.90)//28
    (-1.150 0.40 1.90)//29
    (1.150 0 1.90)//30
    (1.150 0.40 1.90)//31

    (-1.150 1.40 -1.0)//32
    (-0.150 1.40 -1.0)//33
    (0.150 1.40 -1.0)//34
    (1.150 1.40 -1.0)//35
    (-1.150 1.40 0.0)//36
    (-0.150 1.40 0.0)//37
    (0.150 1.40 0.0)//38
    (1.150 1.40 0.0)//39
    (-1.150 1.40 0.90)//40
    (-0.150 1.40 0.90)//41
    (0.150 1.40 0.90)//42
    (1.150 1.40 0.90)//43
    (-1.150 1.40 1.90)//44
    (-0.150 1.40 1.90)//45
    (0.150 1.40 1.90)//46
    (1.150 1.40 1.90)//47


);
blocks
(
    hex (0 1 2 3 4 5 6 7) (60 80 180) simpleGrading (1 1 1)		//BLOCK 0
    hex (8 9 10 11 0 1 2 3) (60 80 10) simpleGrading (1 1 0.1)    //BLOCK 1
    hex (4 5 6 7 12 13 14 15) (60 80 10) simpleGrading (1 1 10)    //BLOCK 2
    hex (16 0 3 19 17 4 7 18) (10 80 180) simpleGrading (0.1 1 1)    //BLOCK 3
    hex (1 20 23 2 5 21 22 6) (10 80 180) simpleGrading (10 1 1)    //BLOCK 4
    hex (24 8 11 25 16 0 3 19) (10 80 10) simpleGrading (0.1 1 0.1)    //BLOCK 5
    hex (9 26 27 10 1 20 23 2) (10 80 10) simpleGrading (10 1 0.1)    //BLOCK 6
    hex (17 4 7 18 28 12 15 29) (10 80 10) simpleGrading (0.1 1 10)    //BLOCK 7
    hex (5 21 22 6 13 30 31 14) (10 80 10) simpleGrading (10 1 10)    //BLOCK 8

    hex (25 11 33 32 19 3 37 36) (10 10 10) simpleGrading (0.1 10 0.1)    //BLOCK 9 
    hex (11 10 34 33 3 2 38 37) (60 10 10) simpleGrading (1 10 0.1)    //BLOCK 10
    hex (10 27 35 34 2 23 39 38) (10 10 10) simpleGrading (10 10 0.1)    //BLOCK 11
    hex (19 3 37 36 18 7 41 40) (10 10 180) simpleGrading (0.1 10 1)    //BLOCK 12
    hex (3 2 38 37 7 6 42 41) (60 10 180) simpleGrading (1 10 1)    //BLOCK 13
    hex (2 23 39 38 6 22 43 42) (10 10 180) simpleGrading (10 10 1)    //BLOCK 14
    hex (18 7 41 40 29 15 45 44) (10 10 10) simpleGrading (0.1 10 10)    //BLOCK 15
    hex (7 6 42 41 15 14 46 45) (60 10 10) simpleGrading (1 10 10)    //BLOCK 16
    hex (6 22 43 42 14 31 47 46) (10 10 10) simpleGrading (10 10 10)    //BLOCK 17
);

edges
(
);

boundary
(

    lowerWall
    {
        type wall;
        faces
        (
            (32 36 37 33)
            (33 37 38 34)
            (34 38 39 35)
            (36 40 41 37)
            (37 41 42 38)
            (38 42 43 39)
            (40 44 45 41)
            (41 45 46 42)
            (42 46 47 43)
        );
    }

    atmosphere
    {
        type patch;
        faces
        (
            (8 0 16 24)
            (9 1 0 8)
            (26 20 1 9)
            (0 4 17 16)
            (1 5 4 0)
            (20 21 5 1)
            (4 12 28 17)
            (5 13 4 12)
            (21 30 13 5)
        );
    }
    rightWall
    {
        type patch;
        faces
        (
            (26 27 23 20)
            (27 35 39 23)
            (20 23 22 21)
            (23 39 43 22)
            (21 22 31 30)
            (22 43 47 31)
        );
    }
    leftWall
    {
        type patch;
        faces
        (
            (24 16 19 25)
            (25 19 36 32)
            (16 17 18 19)
            (19 18 40 36)
            (17 28 29 18)
            (18 29 44 40)
        );
    }
    frontAndBack
    {
        type patch;
        faces
        (
            (24 25 11 8)
            (25 32 33 11)
            (8 11 10 9)
            (11 33 34 10)
            (9 10 27 26)
            (10 34 35 27)

            (12 15 29 28)
            (15 45 44 29)
            (13 14 15 12)
            (14 46 45 15)
            (30 31 14 13)
            (31 47 46 14)
        );
    }

);

mergePatchPairs
(
	 
);

// ************************************************************************* //
